OPT_V8/My_Campus_24/powerflow_results_t6.txt
Pandapower Network Debug Info
==================================================

BUS:
       vm_pu  va_degree      p_mw    q_mvar
0   0.992763   0.116213  0.000963  0.001017
1   0.988423   0.174235  0.001647  0.002013
2   0.984731   0.224829  0.002038  0.002540
3   0.988620   0.207162  0.002682  0.004425
4   0.987892   0.274566  0.003351  0.005862
5   0.991599   0.204741  0.002972  0.007017
6   0.989847   0.196706  0.001315  0.000868
7   0.997474   0.040625  0.001616  0.002278
8   0.997657   0.044776  0.002079  0.002794
9   0.999883   0.000965  0.010571  0.010168
10  0.999870   0.001058  0.011017  0.009630
11  0.999860   0.001160  0.011042  0.012255
12  0.999766   0.001048  0.011454  0.006225
13  0.999741   0.001064  0.010825  0.008415
14  0.999749   0.001065  0.015528  0.010967
15  0.999928   0.000672  0.000000  0.000000
16  0.999928   0.000678  0.000000  0.000000
17  0.999772   0.001101  0.000000  0.000000
18  0.999772   0.001112  0.000000  0.000000
19  1.000000   0.000000 -0.040109 -0.047147
20  1.000000   0.000006  0.000000  0.000000
21  1.000000   0.000000 -0.049320 -0.049548
22  1.000000   0.000007  0.000000  0.000000
--------------------------------------------------

LINE:
    p_from_mw  q_from_mvar   p_to_mw  q_to_mvar         pl_mw       ql_mvar  i_from_ka   i_to_ka      i_ka  vm_from_pu  va_from_degree  vm_to_pu  va_to_degree  loading_percent
0    0.040099     0.043147 -0.040096  -0.043144  3.393700e-06  2.646124e-06   0.002267  0.002267  0.002267    1.000000        0.000006  0.999928      0.000672         0.985730
1    0.049310     0.045548 -0.049298  -0.045538  1.212081e-05  9.450794e-06   0.002584  0.002584  0.002584    1.000000        0.000007  0.999772      0.001101         1.123365
2    0.032633     0.032054 -0.032631  -0.032052  1.618190e-06  1.261729e-06   0.001761  0.001761  0.001761    0.999928        0.000672  0.999883      0.000965         0.765537
3    0.011454     0.006225 -0.011454  -0.006225  5.879658e-08  4.584466e-08   0.000502  0.000502  0.000502    0.999772        0.001101  0.999766      0.001048         0.218208
4    0.026354     0.019383 -0.026354  -0.019382  5.854618e-07  4.564942e-07   0.001259  0.001259  0.001259    0.999772        0.001101  0.999749      0.001065         0.547593
5    0.007453     0.010091 -0.007379  -0.010033  7.361517e-05  5.739896e-05   0.018108  0.018108  0.018108    0.999928        0.000678  0.992763      0.116213         7.873031
6    0.004353     0.007935 -0.004289  -0.007886  6.358328e-05  4.957693e-05   0.013067  0.013067  0.013067    0.999772        0.001112  0.991599      0.204741         5.681242
7    0.001621     0.002282 -0.001616  -0.002278  5.297607e-06  4.130631e-06   0.004042  0.004042  0.004042    0.999772        0.001112  0.997474      0.040625         1.757293
8    0.005506     0.008714 -0.005487  -0.008699  1.827517e-05  1.424945e-05   0.014881  0.014881  0.014881    0.999772        0.001112  0.997657      0.044776         6.469891
9   -0.022060    -0.021884  0.022060   0.021884  3.339926e-07  2.604195e-07   0.001196  0.001196  0.001196    0.999870        0.001058  0.999883      0.000965         0.520070
10  -0.011042    -0.012255  0.011042   0.012255  1.331143e-07  1.037914e-07   0.000635  0.000635  0.000635    0.999860        0.001160  0.999870      0.001058         0.276089
11   0.010825     0.008415 -0.010825  -0.008415  9.199208e-08  7.172774e-08   0.000528  0.000528  0.000528    0.999749        0.001065  0.999741      0.001064         0.229515
12  -0.003695    -0.004561  0.003716   0.004577  2.086246e-05  1.626680e-05   0.008571  0.008571  0.008571    0.988423        0.174235  0.992763      0.116213         3.726586
13  -0.002682    -0.004425  0.002701   0.004439  1.829062e-05  1.426150e-05   0.007555  0.007555  0.007555    0.988620        0.207162  0.992763      0.116213         3.284582
14  -0.002038    -0.002540  0.002048   0.002547  9.892309e-06  7.713196e-06   0.004773  0.004773  0.004773    0.984731        0.224829  0.988423      0.174235         2.075265
15   0.003408     0.005906 -0.003351  -0.005862  5.683935e-05  4.431858e-05   0.009865  0.009865  0.009865    0.997657        0.044776  0.987892      0.274566         4.289184
16  -0.001315    -0.000868  0.001318   0.000869  2.206170e-06  1.720187e-06   0.002298  0.002298  0.002298    0.989847        0.196706  0.991599      0.204741         0.998979
--------------------------------------------------

TRAFO:
    p_hv_mw  q_hv_mvar   p_lv_mw  q_lv_mvar    pl_mw   ql_mvar   i_hv_ka   i_lv_ka  vm_hv_pu  va_hv_degree  vm_lv_pu  va_lv_degree  loading_percent
0  0.007463   0.011091 -0.007453  -0.010091  0.00001  0.001000  0.000515  0.018108  0.999928      0.000672  0.999928      0.000678         0.133687
1  0.011490   0.019931 -0.011480  -0.018931  0.00001  0.000999  0.000886  0.031964  0.999772      0.001101  0.999772      0.001112         0.230109
2  0.040109   0.047147 -0.040099  -0.043147  0.00001  0.004000  0.000511  0.002267  1.000000      0.000000  1.000000      0.000006         0.154749
3  0.049320   0.049548 -0.049310  -0.045548  0.00001  0.004000  0.000577  0.002584  1.000000      0.000000  1.000000      0.000007         0.174776
--------------------------------------------------
